[root]
type=Root
children=system
eventq_index=0
full_system=false
sim_quantum=0
time_sync_enable=false
time_sync_period=100000000000
time_sync_spin_threshold=100000000

[system]
type=System
children=clk_domain cpu cpu_clk_domain cpu_voltage_domain dvfs_handler mem_ctrls membus redirect_paths0 redirect_paths1 redirect_paths2 voltage_domain
byte_order=little
cache_line_size=64
eventq_index=0
exit_on_work_items=false
init_param=0
m5ops_base=0
mem_mode=atomic
mem_ranges=0:536870912
memories=system.mem_ctrls.dram
mmap_using_noreserve=false
multi_thread=false
num_work_ids=16
readfile=
redirect_paths=system.redirect_paths0 system.redirect_paths1 system.redirect_paths2
shared_backstore=
symbolfile=
thermal_components=
thermal_model=Null
work_begin_ckpt_count=0
work_begin_cpu_id_exit=-1
work_begin_exit_count=0
work_cpus_ckpt_count=0
work_end_ckpt_count=0
work_end_exit_count=0
work_item_id=-1
workload=Null
system_port=system.membus.cpu_side_ports[0]

[system.clk_domain]
type=SrcClockDomain
clock=1000
domain_id=-1
eventq_index=0
init_perf_level=0
voltage_domain=system.voltage_domain

[system.cpu]
type=AtomicCGRA
children=dtb interrupts isa itb power_state tracer workload
CGRA_cols=4
CGRA_rows=4
branchPred=Null
checker=Null
clk_domain=system.cpu_clk_domain
connection=0
cpu_id=0
do_checkpoint_insts=true
do_statistics_insts=true
dtb=system.cpu.dtb
eventq_index=0
fastmem=false
function_trace=false
function_trace_start=0
interrupts=system.cpu.interrupts
isa=system.cpu.isa
itb=system.cpu.itb
max_insts_all_threads=0
max_insts_any_thread=0
numThreads=1
power_gating_on_idle=false
power_model=
power_state=system.cpu.power_state
progress_interval=0
pwr_gating_latency=300
rfsize=4
simpoint_interval=100000000
simpoint_profile=false
simpoint_profile_file=simpoint.bb.gz
simpoint_start_insts=
simulate_data_stalls=false
simulate_inst_stalls=false
socket_id=0
switched_out=false
syscallRetryLatency=10000
system=system
tracer=system.cpu.tracer
wait_for_remote_gdb=false
width=1
workload=system.cpu.workload
dcache_port=system.membus.cpu_side_ports[2]
icache_port=system.membus.cpu_side_ports[1]

[system.cpu.dtb]
type=ArmTLB
children=stage2_mmu walker
eventq_index=0
is_stage2=false
size=64
sys=system
walker=system.cpu.dtb.walker

[system.cpu.dtb.stage2_mmu]
type=ArmStage2MMU
children=stage2_tlb
eventq_index=0
stage2_tlb=system.cpu.dtb.stage2_mmu.stage2_tlb
sys=system
tlb=system.cpu.dtb

[system.cpu.dtb.stage2_mmu.stage2_tlb]
type=ArmTLB
children=walker
eventq_index=0
is_stage2=true
size=32
sys=system
walker=system.cpu.dtb.stage2_mmu.stage2_tlb.walker

[system.cpu.dtb.stage2_mmu.stage2_tlb.walker]
type=ArmTableWalker
children=power_state
clk_domain=system.cpu_clk_domain
eventq_index=0
is_stage2=true
num_squash_per_cycle=2
power_model=
power_state=system.cpu.dtb.stage2_mmu.stage2_tlb.walker.power_state
sys=system

[system.cpu.dtb.stage2_mmu.stage2_tlb.walker.power_state]
type=PowerState
clk_gate_bins=20
clk_gate_max=1000000000000
clk_gate_min=1000
default_state=UNDEFINED
eventq_index=0
leaders=
possible_states=

[system.cpu.dtb.walker]
type=ArmTableWalker
children=power_state
clk_domain=system.cpu_clk_domain
eventq_index=0
is_stage2=false
num_squash_per_cycle=2
power_model=
power_state=system.cpu.dtb.walker.power_state
sys=system
port=system.membus.cpu_side_ports[4]

[system.cpu.dtb.walker.power_state]
type=PowerState
clk_gate_bins=20
clk_gate_max=1000000000000
clk_gate_min=1000
default_state=UNDEFINED
eventq_index=0
leaders=
possible_states=

[system.cpu.interrupts]
type=ArmInterrupts
eventq_index=0

[system.cpu.isa]
type=ArmISA
decoderFlavor=Generic
eventq_index=0
fpsid=1090793632
id_aa64afr0_el1=0
id_aa64afr1_el1=0
id_aa64dfr0_el1=15790086
id_aa64dfr1_el1=0
id_aa64isar0_el1=0
id_aa64isar1_el1=16846864
id_aa64mmfr0_el1=15728642
id_aa64mmfr1_el1=1052672
id_aa64mmfr2_el1=0
id_isar0=34607377
id_isar1=34677009
id_isar2=555950401
id_isar3=17899825
id_isar4=268501314
id_isar5=268435456
id_mmfr0=270536963
id_mmfr1=0
id_mmfr2=19070976
id_mmfr3=34611729
impdef_nop=false
midr=0
pmu=Null
sve_vl_se=1
system=system

[system.cpu.itb]
type=ArmTLB
children=stage2_mmu walker
eventq_index=0
is_stage2=false
size=64
sys=system
walker=system.cpu.itb.walker

[system.cpu.itb.stage2_mmu]
type=ArmStage2MMU
children=stage2_tlb
eventq_index=0
stage2_tlb=system.cpu.itb.stage2_mmu.stage2_tlb
sys=system
tlb=system.cpu.itb

[system.cpu.itb.stage2_mmu.stage2_tlb]
type=ArmTLB
children=walker
eventq_index=0
is_stage2=true
size=32
sys=system
walker=system.cpu.itb.stage2_mmu.stage2_tlb.walker

[system.cpu.itb.stage2_mmu.stage2_tlb.walker]
type=ArmTableWalker
children=power_state
clk_domain=system.cpu_clk_domain
eventq_index=0
is_stage2=true
num_squash_per_cycle=2
power_model=
power_state=system.cpu.itb.stage2_mmu.stage2_tlb.walker.power_state
sys=system

[system.cpu.itb.stage2_mmu.stage2_tlb.walker.power_state]
type=PowerState
clk_gate_bins=20
clk_gate_max=1000000000000
clk_gate_min=1000
default_state=UNDEFINED
eventq_index=0
leaders=
possible_states=

[system.cpu.itb.walker]
type=ArmTableWalker
children=power_state
clk_domain=system.cpu_clk_domain
eventq_index=0
is_stage2=false
num_squash_per_cycle=2
power_model=
power_state=system.cpu.itb.walker.power_state
sys=system
port=system.membus.cpu_side_ports[3]

[system.cpu.itb.walker.power_state]
type=PowerState
clk_gate_bins=20
clk_gate_max=1000000000000
clk_gate_min=1000
default_state=UNDEFINED
eventq_index=0
leaders=
possible_states=

[system.cpu.power_state]
type=PowerState
clk_gate_bins=20
clk_gate_max=1000000000000
clk_gate_min=1000
default_state=UNDEFINED
eventq_index=0
leaders=
possible_states=ON CLK_GATED OFF

[system.cpu.tracer]
type=ExeTracer
eventq_index=0

[system.cpu.workload]
type=Process
cmd=./add_small 13
cwd=/home/local/ASUAD/quoclon1/ccf2_git/CCF-20.04/benchmarks/Micro-benchmarks/simple_loop_1
drivers=
egid=100
env=
errout=cerr
euid=100
eventq_index=0
executable=./add_small
gid=100
input=cin
kvmInSE=false
maxStackSize=67108864
output=cout
pgid=100
pid=100
ppid=0
release=5.1.0
simpoint=0
system=system
uid=100
useArchPT=false

[system.cpu_clk_domain]
type=SrcClockDomain
clock=500
domain_id=-1
eventq_index=0
init_perf_level=0
voltage_domain=system.cpu_voltage_domain

[system.cpu_voltage_domain]
type=VoltageDomain
eventq_index=0
voltage=1.0

[system.dvfs_handler]
type=DVFSHandler
domains=
enable=false
eventq_index=0
sys_clk_domain=system.clk_domain
transition_latency=100000000

[system.mem_ctrls]
type=MemCtrl
children=dram power_state
clk_domain=system.clk_domain
command_window=10000
dram=system.mem_ctrls.dram
eventq_index=0
mem_sched_policy=frfcfs
min_writes_per_switch=16
nvm=Null
power_model=
power_state=system.mem_ctrls.power_state
qos_policy=Null
qos_priorities=1
qos_priority_escalation=false
qos_q_policy=fifo
qos_requestors=               
qos_syncro_scheduler=false
qos_turnaround_policy=Null
static_backend_latency=10000
static_frontend_latency=10000
system=system
write_high_thresh_perc=85
write_low_thresh_perc=50
port=system.membus.mem_side_ports[0]

[system.mem_ctrls.dram]
type=DRAMInterface
children=power_state
IDD0=0.055
IDD02=0.0
IDD2N=0.032
IDD2N2=0.0
IDD2P0=0.0
IDD2P02=0.0
IDD2P1=0.032
IDD2P12=0.0
IDD3N=0.038
IDD3N2=0.0
IDD3P0=0.0
IDD3P02=0.0
IDD3P1=0.038
IDD3P12=0.0
IDD4R=0.157
IDD4R2=0.0
IDD4W=0.125
IDD4W2=0.0
IDD5=0.23500000000000001
IDD52=0.0
IDD6=0.02
IDD62=0.0
VDD=1.5
VDD2=0.0
activation_limit=4
addr_mapping=RoRaBaCoCh
bank_groups_per_rank=0
banks_per_rank=8
beats_per_clock=2
burst_length=8
clk_domain=system.clk_domain
conf_table_reported=true
data_clock_sync=false
device_bus_width=8
device_rowbuffer_size=1024
device_size=536870912
devices_per_rank=8
dll=true
enable_dram_powerdown=false
eventq_index=0
image_file=
in_addr_map=true
kvm_map=true
max_accesses_per_row=16
null=false
page_policy=open_adaptive
power_model=
power_state=system.mem_ctrls.dram.power_state
range=0:536870912
ranks_per_channel=2
read_buffer_size=32
tAAD=1250
tBURST=5000
tBURST_MAX=5000
tBURST_MIN=5000
tCCD_L=0
tCCD_L_WR=0
tCK=1250
tCL=13750
tCS=2500
tPPD=0
tRAS=35000
tRCD=13750
tREFI=7800000
tRFC=260000
tRP=13750
tRRD=6000
tRRD_L=0
tRTP=7500
tRTW=2500
tWR=15000
tWTR=7500
tWTR_L=7500
tXAW=30000
tXP=6000
tXPDLL=0
tXS=270000
tXSDLL=0
two_cycle_activate=false
write_buffer_size=64

[system.mem_ctrls.dram.power_state]
type=PowerState
clk_gate_bins=20
clk_gate_max=1000000000000
clk_gate_min=1000
default_state=UNDEFINED
eventq_index=0
leaders=
possible_states=

[system.mem_ctrls.power_state]
type=PowerState
clk_gate_bins=20
clk_gate_max=1000000000000
clk_gate_min=1000
default_state=UNDEFINED
eventq_index=0
leaders=
possible_states=

[system.membus]
type=CoherentXBar
children=power_state snoop_filter
clk_domain=system.clk_domain
eventq_index=0
forward_latency=4
frontend_latency=3
header_latency=1
max_outstanding_snoops=512
max_routing_table_size=512
point_of_coherency=true
point_of_unification=true
power_model=
power_state=system.membus.power_state
response_latency=2
snoop_filter=system.membus.snoop_filter
snoop_response_latency=4
system=system
use_default_range=false
width=16
cpu_side_ports=system.system_port system.cpu.icache_port system.cpu.dcache_port system.cpu.itb.walker.port system.cpu.dtb.walker.port
mem_side_ports=system.mem_ctrls.port

[system.membus.power_state]
type=PowerState
clk_gate_bins=20
clk_gate_max=1000000000000
clk_gate_min=1000
default_state=UNDEFINED
eventq_index=0
leaders=
possible_states=

[system.membus.snoop_filter]
type=SnoopFilter
eventq_index=0
lookup_latency=1
max_capacity=8388608
system=system

[system.redirect_paths0]
type=RedirectPath
app_path=/proc
eventq_index=0
host_paths=m5out/fs/proc

[system.redirect_paths1]
type=RedirectPath
app_path=/sys
eventq_index=0
host_paths=m5out/fs/sys

[system.redirect_paths2]
type=RedirectPath
app_path=/tmp
eventq_index=0
host_paths=m5out/fs/tmp

[system.voltage_domain]
type=VoltageDomain
eventq_index=0
voltage=1.0

