[root]
type=Root
children=system
eventq_index=0
full_system=false
sim_quantum=0
time_sync_enable=false
time_sync_period=100000000000
time_sync_spin_threshold=100000000

[system]
type=System
children=clk_domain cpu0 cpu1 cpu_clk_domain cpu_voltage_domain mem_ctrls membus voltage_domain
boot_osflags=a
cache_line_size=64
clk_domain=system.clk_domain
eventq_index=0
init_param=0
kernel=
load_addr_mask=1099511627775
mem_mode=atomic
mem_ranges=0:8589934591
memories=system.mem_ctrls
num_work_ids=16
readfile=
symbolfile=
work_begin_ckpt_count=0
work_begin_cpu_id_exit=-1
work_begin_exit_count=0
work_cpus_ckpt_count=0
work_end_ckpt_count=0
work_end_exit_count=0
work_item_id=-1
system_port=system.membus.slave[0]

[system.clk_domain]
type=SrcClockDomain
clock=1000
eventq_index=0
voltage_domain=system.voltage_domain

[system.cpu0]
type=AtomicSimpleCPU
children=dtb interrupts isa itb tracer workload
checker=Null
clk_domain=system.cpu_clk_domain
cpu_id=0
do_checkpoint_insts=true
do_quiesce=true
do_statistics_insts=true
dtb=system.cpu0.dtb
eventq_index=0
fastmem=false
function_trace=false
function_trace_start=0
interrupts=system.cpu0.interrupts
isa=system.cpu0.isa
itb=system.cpu0.itb
max_insts_all_threads=0
max_insts_any_thread=0
max_loads_all_threads=0
max_loads_any_thread=0
numThreads=1
profile=0
progress_interval=0
simpoint_interval=100000000
simpoint_profile=false
simpoint_profile_file=simpoint.bb.gz
simpoint_start_insts=
simulate_data_stalls=false
simulate_inst_stalls=false
switched_out=false
system=system
tracer=system.cpu0.tracer
width=1
workload=system.cpu0.workload
dcache_port=system.membus.slave[2]
icache_port=system.membus.slave[1]

[system.cpu0.dtb]
type=ArmTLB
children=walker
eventq_index=0
size=64
walker=system.cpu0.dtb.walker

[system.cpu0.dtb.walker]
type=ArmTableWalker
clk_domain=system.cpu_clk_domain
eventq_index=0
num_squash_per_cycle=2
sys=system
port=system.membus.slave[4]

[system.cpu0.interrupts]
type=ArmInterrupts
eventq_index=0

[system.cpu0.isa]
type=ArmISA
eventq_index=0
fpsid=1090793632
id_isar0=34607377
id_isar1=34677009
id_isar2=555950401
id_isar3=17899825
id_isar4=268501314
id_isar5=0
id_mmfr0=3
id_mmfr1=0
id_mmfr2=19070976
id_mmfr3=4027589137
id_pfr0=49
id_pfr1=1
midr=890224640

[system.cpu0.itb]
type=ArmTLB
children=walker
eventq_index=0
size=64
walker=system.cpu0.itb.walker

[system.cpu0.itb.walker]
type=ArmTableWalker
clk_domain=system.cpu_clk_domain
eventq_index=0
num_squash_per_cycle=2
sys=system
port=system.membus.slave[3]

[system.cpu0.tracer]
type=ExeTracer
eventq_index=0

[system.cpu0.workload]
type=LiveProcess
cmd=./basicmath_small
cwd=/home/shail/Results-extra/MiBench/basicmath-CCF/basicmath6
egid=100
env=
errout=cerr
euid=100
eventq_index=0
executable=./basicmath_small
gid=100
input=cin
max_stack_size=67108864
output=cout
pid=100
ppid=99
simpoint=0
system=system
uid=100

[system.cpu1]
type=AtomicCGRA
children=dtb interrupts isa itb tracer
checker=Null
clk_domain=system.cpu_clk_domain
cpu_id=1
do_checkpoint_insts=true
do_quiesce=true
do_statistics_insts=true
dtb=system.cpu1.dtb
eventq_index=0
fastmem=false
function_trace=false
function_trace_start=0
interrupts=system.cpu1.interrupts
isa=system.cpu1.isa
itb=system.cpu1.itb
max_insts_all_threads=0
max_insts_any_thread=0
max_loads_all_threads=0
max_loads_any_thread=0
numThreads=1
profile=0
progress_interval=0
simpoint_interval=100000000
simpoint_profile=false
simpoint_profile_file=simpoint.bb.gz
simpoint_start_insts=
simulate_data_stalls=false
simulate_inst_stalls=false
switched_out=false
system=system
tracer=system.cpu1.tracer
width=1
workload=system.cpu0.workload
dcache_port=system.membus.slave[6]
icache_port=system.membus.slave[5]

[system.cpu1.dtb]
type=ArmTLB
children=walker
eventq_index=0
size=64
walker=system.cpu1.dtb.walker

[system.cpu1.dtb.walker]
type=ArmTableWalker
clk_domain=system.cpu_clk_domain
eventq_index=0
num_squash_per_cycle=2
sys=system
port=system.membus.slave[8]

[system.cpu1.interrupts]
type=ArmInterrupts
eventq_index=0

[system.cpu1.isa]
type=ArmISA
eventq_index=0
fpsid=1090793632
id_isar0=34607377
id_isar1=34677009
id_isar2=555950401
id_isar3=17899825
id_isar4=268501314
id_isar5=0
id_mmfr0=3
id_mmfr1=0
id_mmfr2=19070976
id_mmfr3=4027589137
id_pfr0=49
id_pfr1=1
midr=890224640

[system.cpu1.itb]
type=ArmTLB
children=walker
eventq_index=0
size=64
walker=system.cpu1.itb.walker

[system.cpu1.itb.walker]
type=ArmTableWalker
clk_domain=system.cpu_clk_domain
eventq_index=0
num_squash_per_cycle=2
sys=system
port=system.membus.slave[7]

[system.cpu1.tracer]
type=ExeTracer
eventq_index=0

[system.cpu_clk_domain]
type=SrcClockDomain
clock=500
eventq_index=0
voltage_domain=system.cpu_voltage_domain

[system.cpu_voltage_domain]
type=VoltageDomain
eventq_index=0
voltage=1.000000

[system.mem_ctrls]
type=SimpleMemory
bandwidth=73.000000
clk_domain=system.clk_domain
conf_table_reported=true
eventq_index=0
in_addr_map=true
latency=30000
latency_var=0
null=false
range=0:8589934591
port=system.membus.master[0]

[system.membus]
type=CoherentBus
clk_domain=system.clk_domain
eventq_index=0
header_cycles=1
system=system
use_default_range=false
width=8
master=system.mem_ctrls.port
slave=system.system_port system.cpu0.icache_port system.cpu0.dcache_port system.cpu0.itb.walker.port system.cpu0.dtb.walker.port system.cpu1.icache_port system.cpu1.dcache_port system.cpu1.itb.walker.port system.cpu1.dtb.walker.port

[system.voltage_domain]
type=VoltageDomain
eventq_index=0
voltage=1.000000

